4
Lattice="3.5138739122783664 0.0 0.0 0.0 4.694851834417325 0.0 0.0 0.0 4.717291542101549" Properties=species:S:1:pos:R:3 pbc="T T T"
Ge       1.83646216       3.58650713       3.77027034
Ge       0.42072873       0.54978389       0.41374898
Ge       2.35862255       1.56637984       4.23785692
Ge       2.67944182       1.27012146       1.71799993
