4
Lattice="3.518831809326234 0.0 0.0 0.0 4.52187810474613 0.0 0.0 0.0 5.975323427786132" Properties=species:S:1:pos:R:3 pbc="T T T"
Ge       0.05834153       4.49060743       3.49340612
Ge       1.88679907       2.81166777       1.63238183
Ge       2.09621658       1.04582241       5.22176641
Ge       1.39404328       3.06411849       4.33670830
