5
Lattice="5.623725419566716 0.0 0.0 0.0 4.017966437209683 0.0 0.0 0.0 4.592551182863444" Properties=species:S:1:pos:R:3 pbc="T T T"
Ge       1.37666831       0.64791341       4.31708542
Ge       4.99380535       3.12340122       2.37738703
Ge       2.75904421       2.12850031       2.46421607
Ge       2.44386347       0.52938650       0.57711768
Ge       5.35519093       1.93678341       4.37764516
