5
Lattice="4.383298290464722 0.0 0.0 0.0 4.979853903387836 0.0 0.0 0.0 4.799086070147971" Properties=species:S:1:pos:R:3 pbc="T T T"
Ge       4.16440117       1.70666387       0.85056843
Ge       2.97228854       4.21299406       0.19318116
Ge       1.97087419       4.44445831       3.59748427
Ge       4.34738907       2.64636314       3.16737626
Ge       1.78907243       2.19138525       0.60375871
