4
Lattice="5.457599637881941 0.0 0.0 0.0 3.278268232273484 0.0 0.0 0.0 4.183444553816264" Properties=species:S:1:pos:R:3 pbc="T T T"
Ge       1.40506972       2.46633598       2.10920324
Ge       4.09465138       1.52334449       1.53910741
Ge       0.64896507       0.28187321       0.73750515
Ge       2.44898600       1.28809118       3.66086623
