9
Lattice="5.90931473649303 0.0 0.0 0.0 5.354166062554054 0.0 0.0 0.0 5.902779077992417" Properties=species:S:1:pos:R:3 pbc="T T T"
Ge       0.83973682       2.81875475       1.00334566
Ge       4.83516295       3.12770115       1.55508310
Ge       5.49329290       0.61672526       3.32835520
Ge       1.91027985       3.14629524       4.23856334
Ge       2.61579371       0.83680969       0.61478326
Ge       5.90792804       2.43803088       5.15036215
Ge       2.85051163       4.93845597       0.51802425
Ge       0.67377529       4.97740511       5.59284212
Ge       2.45923035       1.01753365       5.30291142
