4
Lattice="5.836249717319845 0.0 0.0 0.0 3.797428239825197 0.0 0.0 0.0 4.512191719693653" Properties=species:S:1:pos:R:3 pbc="T T T"
Ge       2.47255708       3.53200896       2.26698375
Ge       5.66778726       0.98290976       2.27660485
Ge       0.18132994       1.48797559       0.90326602
Ge       5.25315747       1.30118991       0.17588242
