6
Lattice="4.932028204349605 0.0 0.0 0.0 4.8312123275229215 0.0 0.0 0.0 5.329945307666147" Properties=species:S:1:pos:R:3 pbc="T T T"
Ge       3.51015318       0.49663750       2.53184365
Ge       2.97601520       1.18638167       0.22679886
Ge       1.10275377       2.19769144       2.20622596
Ge       0.87132653       3.98292653       4.93385932
Ge       0.99305559       4.49096413       0.09519794
Ge       4.56194100       4.59897011       0.06423577
