7
Lattice="5.259219820861529 0.0 0.0 0.0 5.6776244843852615 0.0 0.0 0.0 5.4173180950269035" Properties=species:S:1:pos:R:3 pbc="T T T"
Ge       2.92348147       1.68859342       1.78655230
Ge       4.90130030       3.87154889       5.27966628
Ge       0.56424622       1.34390504       2.85837400
Ge       0.35433628       5.28849106       0.67090062
Ge       4.73476043       4.12025760       0.37174101
Ge       4.35567456       4.07852475       3.17550345
Ge       1.69590548       3.95885801       5.18421948
